Circuit: * C:\Libros Técnicos\Electrónica\Simulaciones Art of Electronics\02_16 - AC coupled emitter follower.asc

WARNING: Node V_OUT is floating.

WARNING: Less than two connections to node V_OUT.  This node is used by C2.
Direct Newton iteration for .op point succeeded.

Date: Sun Jan 11 18:16:06 2015
Total elapsed time: 0.062 seconds.

tnom = 27
temp = 27
method = modified trap
totiter = 2090
traniter = 2084
tranpoints = 1042
accept = 1042
rejected = 0
matrix size = 10
fillins = 0
solver = Normal
Matrix Compiler1: 578 bytes object code size  0.3/0.2/[0.0]
Matrix Compiler2: 756 bytes object code size  0.1/0.2/[0.1]


