Circuit: * C:\Libros Técnicos\Electrónica\Simulaciones Art of Electronics\04_45 - Active full-wave rectifier\04_45 - Active full-wave rectifier.asc

Direct Newton iteration for .op point succeeded.

Date: Sun Jan 18 13:51:49 2015
Total elapsed time: 0.281 seconds.

tnom = 27
temp = 27
method = modified trap
totiter = 4251
traniter = 4223
tranpoints = 1677
accept = 1465
rejected = 212
matrix size = 19
fillins = 14
solver = Normal
Matrix Compiler1: 1,75 KB object code size  1.3/0.6/[0.4]
Matrix Compiler2: 2,15 KB object code size  0.7/0.7/[0.7]


